 #HF/6-31g* scf=(conver=5) nofmm

 test

0 1
H   -0.791  -0.866   0.019
C   -0.410   0.146   0.154
H   -0.503   0.433   1.201
H   -0.984   0.836  -0.464
C    1.048   0.238  -0.245
O    1.659  -0.755  -0.662
N    1.748   1.526  -0.136
H    1.492   2.463   0.139
C    3.128   1.277  -0.544
H    3.332   0.208  -0.484
H    3.265   1.616  -1.571
C    4.097   2.013   0.349
O    3.922   3.190   0.674
N    5.285   1.305   0.847
H    5.664   0.374   0.744
C    6.017   2.263   1.671
H    5.690   3.273   1.423
H    5.811   2.063   2.722
C    7.503   2.156   1.433
O    8.080   1.067   1.378
N    8.288   3.387   1.262
H    8.083   4.376   1.261
C    9.670   2.966   1.052
H    9.791   1.942   1.406
H    9.901   3.012  -0.012
C   10.627   3.861   1.802
O   10.518   5.090   1.792
N   11.723   3.249   2.567
H   12.038   2.306   2.743
C   12.466   4.351   3.172
H   12.232   5.274   2.642
H   12.174   4.449   4.218
C   13.953   4.106   3.098
O   14.451   3.012   3.378
N   14.836   5.204   2.678
H   14.705   6.166   2.400
C   16.195   4.669   2.704
H   16.215   3.771   3.322
H   16.501   4.418   1.689
C   17.162   5.679   3.273
O   17.145   6.865   2.934
N   18.155   5.235   4.262
H   18.387   4.357   4.705
C   18.934   6.418   4.619
H   18.806   7.178   3.848
H   18.580   6.806   5.574
C   20.401   6.083   4.739
O   20.796   5.079   5.337
N   21.389   6.981   4.124
H   21.340   7.840   3.595
C   22.699   6.414   4.397
H   22.585   5.495   4.973
H   23.203   6.192   3.456
H   23.293   7.128   4.967

